                                  MODFLOW-2000
      U.S. GEOLOGICAL SURVEY MODULAR FINITE-DIFFERENCE GROUND-WATER FLOW MODEL
                             VERSION 1.11 04/10/2003


 This model run combines GLOBAL and LIST output into this single file.

 GLOBAL LISTING FILE: output.dat
                         UNIT    3

 OPENING discret.dat
 FILE TYPE:DIS   UNIT   95   STATUS:OLD    
 FORMAT:FORMATTED              ACCESS:SEQUENTIAL          

 OPENING bas.dat
 FILE TYPE:BAS6   UNIT    1   STATUS:OLD    
 FORMAT:FORMATTED              ACCESS:SEQUENTIAL          

 OPENING adv.dat
 FILE TYPE:ADV2   UNIT   78   STATUS:OLD    
 FORMAT:FORMATTED              ACCESS:SEQUENTIAL          

 OPENING observation.dat
 FILE TYPE:OBS   UNIT   77   STATUS:OLD    
 FORMAT:FORMATTED              ACCESS:SEQUENTIAL          

 OPENING lpf.dat
 FILE TYPE:LPF   UNIT   31   STATUS:OLD    
 FORMAT:FORMATTED              ACCESS:SEQUENTIAL          

 OPENING wel.dat
 FILE TYPE:WEL   UNIT   12   STATUS:OLD    
 FORMAT:FORMATTED              ACCESS:SEQUENTIAL          

 OPENING lmg.dat
 FILE TYPE:LMG   UNIT   23   STATUS:OLD    
 FORMAT:FORMATTED              ACCESS:SEQUENTIAL          

 OPENING oc.dat
 FILE TYPE:OC   UNIT   22   STATUS:OLD    
 FORMAT:FORMATTED              ACCESS:SEQUENTIAL          

 OPENING heads.dat
 FILE TYPE:DATA(BINARY)   UNIT   51   STATUS:UNKNOWN
 FORMAT:UNFORMATTED            ACCESS:TRANSPARENT         

 OPENING path.dat
 FILE TYPE:DATA   UNIT   60   STATUS:UNKNOWN
 FORMAT:FORMATTED              ACCESS:SEQUENTIAL          

 THE FREE FORMAT OPTION HAS BEEN SELECTED

 DISCRETIZATION INPUT DATA READ FROM UNIT   95
 # Discretization file for MODFLOW-2000, generated by PMWIN
    1 LAYERS        80 ROWS        50 COLUMNS
    1 STRESS PERIOD(S) IN SIMULATION
 MODEL TIME UNIT IS DAYS
 MODEL LENGTH UNIT IS UNDEFINED
 THE GROUND-WATER TRANSPORT PROCESS IS INACTIVE

 THE OBSERVATION PROCESS IS ACTIVE
 THE SENSITIVITY PROCESS IS INACTIVE
 THE PARAMETER-ESTIMATION PROCESS IS INACTIVE

 MODE: FORWARD WITH OBSERVATIONS

  Confining bed flag for each layer:
   0

      36130  ELEMENTS OF GX ARRAY USED OUT OF      36130
       4000  ELEMENTS OF GZ ARRAY USED OUT OF       4000
       4000  ELEMENTS OF IG ARRAY USED OUT OF       4000



                               DELR
 READING ON UNIT   95 WITH FORMAT: (20G14.0)           



                               DELC
 READING ON UNIT   95 WITH FORMAT: (20G14.0)           

 TOP ELEVATION OF LAYER 1 =  -100.000    

   MODEL LAYER BOTTOM EL. =  -110.000     FOR LAYER   1


 STRESS PERIOD     LENGTH       TIME STEPS     MULTIPLIER FOR DELT    SS FLAG
 ----------------------------------------------------------------------------
        1         1.000000          1                    1.000         SS

 STEADY-STATE SIMULATION




 LPF1 -- LAYER PROPERTY FLOW PACKAGE, VERSION 1, 1/11/2000
         INPUT READ FROM UNIT   31
 HEAD AT CELLS THAT CONVERT TO DRY= -1.00000E+30
 No named parameters

   LAYER FLAGS:
 LAYER       LAYTYP        LAYAVG         CHANI        LAYVKA        LAYWET
 ---------------------------------------------------------------------------
    1             0             0     1.000E+00             1             0

   INTERPRETATION OF LAYER FLAGS:
                        INTERBLOCK     HORIZONTAL    DATA IN
         LAYER TYPE   TRANSMISSIVITY   ANISOTROPY   ARRAY VKA   WETTABILITY
 LAYER      (LAYTYP)      (LAYAVG)       (CHANI)      (LAYVKA)      (LAYWET)
 ---------------------------------------------------------------------------
    1      CONFINED      HARMONIC     1.000E+00    ANISOTROPY  NON-WETTABLE

       8000 ELEMENTS IN X ARRAY ARE USED BY LPF
          6 ELEMENTS IN IX ARRAY ARE USED BY LPF

 LMG -- ALGEBRAIC MULTI-GRID SOLUTION PACKAGE, VERSION 1.2, 09/19/2002
 STORAGE FACTOR FOR (A) AND (JA)=  3.000
 STORAGE FACTOR FOR (IA), (U), AND (F)=  2.200
 STORAGE FACTOR FOR (IG)=  5.400
     96820 ELEMENTS IN Z ARRAY ARE USED BY LMG
    109620 ELEMENTS IN IX ARRAY ARE USED BY LMG
 SPACE ALLOCATED FOR [A] AND [JA]=    79220
 SPACE ALLOCATED FOR [U] AND [FRHS]=     8800
 SPACE ALLOCATED FOR [IA]=     8800
 SPACE ALLOCATED FOR [IG]=    21600

 OBS1BAS6 -- OBSERVATION PROCESS, VERSION 1.0, 4/27/99
 INPUT READ FROM UNIT  77
 OBSERVATION GRAPH-DATA OUTPUT FILES WILL NOT BE PRINTED

 ADV2 -- OBSERVATION PROCESS (ADVECTIVE TRANSPORT OBSERVATIONS)
 VERSION 2.4, 07/09/2002
 INPUT READ FROM UNIT  78

 NUMBER OF PARTICLES ................................    1
 TOTAL NUMBER OF ADVECTIVE-TRANSPORT OBSERVATIONS ...    1
 OUTPUT UNIT NUMBER FOR ADVECTIVE-TRANSPORT INFO ....   60

 TWO- OR THREE-DIMENSIONAL TRACKING (KTDIM)..........    2
 PARTICLE-TRACKING TIME-STEP FLAG (KTFLG)............    1
 TIME STEP (IF KTFLG>1)..............................  1.0000000    
 FORWARD OR BACKWARD PARTICLE TRACKING (KTREV).......    1
 WEAK SINK FLAG/FRACTION............................. -1.0000000    

    4055 ELEMENTS IN X ARRAY ARE USED FOR OBSERVATIONS
      12 ELEMENTS IN Z ARRAY ARE USED FOR OBSERVATIONS
      13 ELEMENTS IN IX ARRAY ARE USED FOR OBSERVATIONS

 COMMON ERROR VARIANCE FOR ALL OBSERVATIONS SET TO:       1.000    

      12055  ELEMENTS OF X ARRAY USED OUT OF      12055
      96832  ELEMENTS OF Z ARRAY USED OUT OF      96832
     109639  ELEMENTS OF IX ARRAY USED OUT OF     109639
          0  ELEMENTS OF XHS ARRAY USED OUT OF          1

   ADVECTIVE-TRANSPORT OBSERVATION DATA
 -----------------------------------------

 OPENING FILE ON UNIT   99:
 por.ref                                                                                                                                                                                                 



                  POROSITY OF LAYER FOR LAYER   1
 READING ON UNIT   99 WITH FORMAT: (FREE)              

 2D PARTICLE TRACKING USED IN LAYER 1


   PATH # 1 INITIAL LOCATION       
 LAYER   ROW    COL    LOFF    ROFF   COFF 
--------------------------------------------
    1     11     25   0.000   0.000   0.000

  OBSERVED INTERMEDIATE PATH LOCATION(S)   
 OBS #      ID            TIME         LAY ROW COL  LOFF   ROFF   COFF
----------------------------------------------------------------------
  1-  2 OBS             1000000.0       1  11  25  0.000  0.000  0.000


SUMMARY OF ADVECTIVE-TRANSPORT OBSERVATIONS:
 OBS #     ID     DIRECTION  TIME           VALUE           WEIGHT         TYPE
--------------------------------------------------------------------------------
    1  OBS            X    1000000.0       245.00000       1.0000000         1
    2                 Y                    105.00000       1.0000000         1

 *** WARNING:  THE OBSERVATION DATA SET CONTAINS DUPLICATE OBSERVATION NAMES.
 *** FUTURE VERSIONS OF MODFLOW MAY NOT ALLOW DUPLICATION OF OBSERVATION NAMES.



                                    SOLUTION BY THE ALGEBRAIC MULTIGRID METHOD
                                    ------------------------------------------
                     MAXIMUM NUMBER OF CALLS TO AMG ROUTINE =       50
                          MAXIMUM NUMBER OF CYCLES PER CALL =       15
           SCALED L2 NORM OF RESIDUAL CRITERION FOR CLOSURE =    0.10000E-03
                           CG-CORRECTION IS NOT ACTIVE: ICG =        0
                                          DAMPING PARAMETER =    0.10000E+01
                             PRINTING FROM SOLVER INCLUDES:
MESSAGES, RESIDUALS AFTER EACH CYCLE, CP-TIMES, AND STORAGE =        3

 WETTING CAPABILITY IS NOT ACTIVE IN ANY LAYER

 OPENING FILE ON UNIT   99:
 hk.ref                                                                                                                                                                                                  



              HYD. COND. ALONG ROWS FOR LAYER   1
 READING ON UNIT   99 WITH FORMAT: (FREE)              

  HORIZ. TO VERTICAL ANI. =   1.00000     FOR LAYER   1
 
 # Basic package file for MODFLOW-2000                                           
 THE FREE FORMAT OPTION HAS BEEN SELECTED
    1 LAYERS        80 ROWS        50 COLUMNS
    1 STRESS PERIOD(S) IN SIMULATION

 BAS6 -- BASIC PACKAGE, VERSION 6, 1/11/2000 INPUT READ FROM UNIT    1
          5 ELEMENTS IN IR ARRAY ARE USED BY BAS

 WEL6 -- WELL PACKAGE, VERSION 6, 1/11/2000 INPUT READ FROM UNIT   12
 No named parameters
 MAXIMUM OF     50 ACTIVE WELLS AT ONE TIME
        200 ELEMENTS IN RX ARRAY ARE USED BY WEL

        200  ELEMENTS OF RX ARRAY USED OUT OF        200
          5  ELEMENTS OF IR ARRAY USED OUT OF          5
1
 # Basic package file for MODFLOW-2000                                           
                                                                                 

 OPENING FILE ON UNIT   99:
 ibound.inf                                                                                                                                                                                              



                     BOUNDARY ARRAY FOR LAYER   1
 READING ON UNIT   99 WITH FORMAT: (FREE)              

 AQUIFER HEAD WILL BE SET TO 1.00000E+35 AT ALL NO-FLOW NODES (IBOUND=0).

             INITIAL HEAD =   0.00000     FOR LAYER   1

 OUTPUT CONTROL IS SPECIFIED ONLY AT TIME STEPS FOR WHICH OUTPUT IS DESIRED
 HEAD PRINT FORMAT CODE IS   0    DRAWDOWN PRINT FORMAT CODE IS   0
 HEADS WILL BE SAVED ON UNIT   51    DRAWDOWNS WILL BE SAVED ON UNIT    0


     0 Well parameters
1
                            STRESS PERIOD NO.    1, LENGTH =   1.000000    
                            -----------------------------------------------

                              NUMBER OF TIME STEPS =     1

                               MULTIPLIER FOR DELT =     1.000

                            INITIAL TIME STEP SIZE =   1.000000    

 WELL NO.  LAYER   ROW   COL   STRESS RATE   
 --------------------------------------------
      1      1      1      1       1.000    
      2      1      1      2       1.000    
      3      1      1      3       1.000    
      4      1      1      4       1.000    
      5      1      1      5       1.000    
      6      1      1      6       1.000    
      7      1      1      7       1.000    
      8      1      1      8       1.000    
      9      1      1      9       1.000    
     10      1      1     10       1.000    
     11      1      1     11       1.000    
     12      1      1     12       1.000    
     13      1      1     13       1.000    
     14      1      1     14       1.000    
     15      1      1     15       1.000    
     16      1      1     16       1.000    
     17      1      1     17       1.000    
     18      1      1     18       1.000    
     19      1      1     19       1.000    
     20      1      1     20       1.000    
     21      1      1     21       1.000    
     22      1      1     22       1.000    
     23      1      1     23       1.000    
     24      1      1     24       1.000    
     25      1      1     25       1.000    
     26      1      1     26       1.000    
     27      1      1     27       1.000    
     28      1      1     28       1.000    
     29      1      1     29       1.000    
     30      1      1     30       1.000    
     31      1      1     31       1.000    
     32      1      1     32       1.000    
     33      1      1     33       1.000    
     34      1      1     34       1.000    
     35      1      1     35       1.000    
     36      1      1     36       1.000    
     37      1      1     37       1.000    
     38      1      1     38       1.000    
     39      1      1     39       1.000    
     40      1      1     40       1.000    
     41      1      1     41       1.000    
     42      1      1     42       1.000    
     43      1      1     43       1.000    
     44      1      1     44       1.000    
     45      1      1     45       1.000    
     46      1      1     46       1.000    
     47      1      1     47       1.000    
     48      1      1     48       1.000    
     49      1      1     49       1.000    
     50      1      1     50       1.000    

     50 WELLS
 
 SOLVING FOR HEAD 


   AVERAGE ABSOLUTE VALUE OF THE RHS VECTOR=    0.12658E-01
            MAXIMUM VALUE OF THE RHS VECTOR=    0.10000E+01
          CLOSURE CRITERION FOR THE L2 NORM=    0.12658E-05

 CHECK: A PROBABLY SYMMETRIC
 CHECK: A PROBABLY POSITIVE TYPE
 CHECK: MATRIX A WAS SYMMETRICALLY STORED
 INTERPOLATION OPERATOR NO.  1 COMPLETED. C-POINTS ADDED IN PWINT:      0
 COARSE  GRID  OPERATOR NO.  2 COMPLETED
 INTERPOLATION OPERATOR NO.  2 COMPLETED. C-POINTS ADDED IN PWINT:     30
 COARSE  GRID  OPERATOR NO.  3 COMPLETED
 INTERPOLATION OPERATOR NO.  3 COMPLETED. C-POINTS ADDED IN PWINT:     31
 COARSE  GRID  OPERATOR NO.  4 COMPLETED
 INTERPOLATION OPERATOR NO.  4 COMPLETED. C-POINTS ADDED IN PWINT:     14
 COARSE  GRID  OPERATOR NO.  5 COMPLETED
 INTERPOLATION OPERATOR NO.  5 COMPLETED. C-POINTS ADDED IN PWINT:      7
 COARSE  GRID  OPERATOR NO.  6 COMPLETED
 INTERPOLATION OPERATOR NO.  6 COMPLETED. C-POINTS ADDED IN PWINT:      3
 COARSE  GRID  OPERATOR NO.  7 COMPLETED
 INTERPOLATION OPERATOR NO.  7 COMPLETED. C-POINTS ADDED IN PWINT:      2
 COARSE  GRID  OPERATOR NO.  8 COMPLETED
 INTERPOLATION OPERATOR NO.  8 COMPLETED. C-POINTS ADDED IN PWINT:      0
 COARSE  GRID  OPERATOR NO.  9 COMPLETED

 ************* CYCLING..... *************

 CYCLE  0:   RES=0.707D+01

 CYCLING BETWEEN GRIDS 1 AND  6:

 CYCLE  1:   RESCG=0.218D+01   RES=0.105D+01   CFAC=0.149D+00
 CYCLE  2:   RESCG=0.214D+00   RES=0.112D+00   CFAC=0.107D+00
 CYCLE  3:   RESCG=0.215D-01   RES=0.113D-01   CFAC=0.100D+00
 CYCLE  4:   RESCG=0.218D-02   RES=0.114D-02   CFAC=0.101D+00
 CYCLE  5:   RESCG=0.224D-03   RES=0.118D-03   CFAC=0.104D+00
 CYCLE  6:   RESCG=0.236D-04   RES=0.126D-04   CFAC=0.106D+00
 CYCLE  7:   RESCG=0.255D-05   RES=0.137D-05   CFAC=0.109D+00
 CYCLE  8:   RESCG=0.280D-06   RES=0.151D-06   CFAC=0.111D+00


 **************** CONVERGENCE *****************
 L2-NORM OF RESIDUAL BEFORE CYCLING = 0.707D+01
 L2-NORM OF RESIDUAL AFTER  CYCLING = 0.151D-06
 CONVERGENCE FACTOR                 = 0.214D-07
 CONVERGENCE FACTOR PER CYCLE       = 0.110D+00


 ************** WORK COUNT ***************

   PREP       SEC       SOL      SEC/CYCLE
 -----------------------------------------
 1 RWSRT      0.00   11 INTADD      0.00
 2 PRE-COL    0.00   12 RESCAL      0.00
 3 CHK-COL    0.00   13 RELAX       0.00
 4 INTERPOL   0.00   14 V-*         0.00
 5 RESTRICT   0.00   15 OTHERS      0.00
 6 OPDFN      0.00   16 CONJ-GRAD   0.00
 7 TRUNC      0.00   17 YALE-SMP    0.00
 8 OTHERS     0.00   18 ------      0.00
 -----------------------------------------
   SUM        0.00      SUM         0.00
 -----------------------------------------


 ********* SPACE REQUIREMENTS *********

 VECTOR      NEEDED      THEOR. MINIMUM
 --------------------------------------
   A          57850             57277
   JA         57416             57277
   IA          6753              6740
   U           6752              6739
   F           6752              6739
   IG         20024             17478
 --------------------------------------


 ******************* COMPLEXITIES ********************
 SPACE OCCUPIED BY ALL OPERATORS / SPACE OF OPERATOR  
 ON THE FINEST GRID   =     2.26   (A-COMPLEXITY)     
 TOTAL NUMBER OF GRID POINTS / NUMBER OF POINTS IN    
 THE  FINEST  GRID    =     1.68   (O-COMPLEXITY)     
 TOTAL SPACE USED BY AMG1R5 / SPACE OCCUPIED BY USER- 
 DEFINED  PROBLEM     =     2.89   (S-COMPLEXITY)     
 SPACE USED DURING SOLUTION PHASE / SPACE OCCUPIED BY 
 USER-DEFINED PROBLEM =     2.84
 *****************************************************

 OUTPUT CONTROL FOR STRESS PERIOD    1   TIME STEP   1
    SAVE HEAD FOR ALL LAYERS

 HEAD WILL BE SAVED ON UNIT   51 AT END OF TIME STEP   1, STRESS PERIOD    1
1
  VOLUMETRIC BUDGET FOR ENTIRE MODEL AT END OF TIME STEP  1 IN STRESS PERIOD   1
  ------------------------------------------------------------------------------

     CUMULATIVE VOLUMES      L**3       RATES FOR THIS TIME STEP      L**3/T
     ------------------                 ------------------------

           IN:                                      IN:
           ---                                      ---
             STORAGE =           0.0000               STORAGE =           0.0000
       CONSTANT HEAD =           0.0000         CONSTANT HEAD =           0.0000
               WELLS =          50.0000                 WELLS =          50.0000

            TOTAL IN =          50.0000              TOTAL IN =          50.0000

          OUT:                                     OUT:
          ----                                     ----
             STORAGE =           0.0000               STORAGE =           0.0000
       CONSTANT HEAD =          50.0000         CONSTANT HEAD =          50.0000
               WELLS =           0.0000                 WELLS =           0.0000

           TOTAL OUT =          50.0000             TOTAL OUT =          50.0000

            IN - OUT =           0.0000              IN - OUT =           0.0000

 PERCENT DISCREPANCY =           0.00     PERCENT DISCREPANCY =           0.00






          TIME SUMMARY AT END OF TIME STEP   1 IN STRESS PERIOD    1
                    SECONDS     MINUTES      HOURS       DAYS        YEARS
                    -----------------------------------------------------------
   TIME STEP LENGTH  86400.      1440.0      24.000      1.0000     2.73785E-03
 STRESS PERIOD TIME  86400.      1440.0      24.000      1.0000     2.73785E-03
         TOTAL TIME  86400.      1440.0      24.000      1.0000     2.73785E-03
1


       ENTERING PARTICLE TRACKING ROUTINE (OBS1ADV2P)
 ---------------------------------------------------------
 SUBROUTINE (OBS1ADV2P) IS HARDWIRED WITH THE FOLLOWING OPTIONS:
 LINEAR VELOCITY INTERPOLATION (SOBS1ADV2L)
 SEMI-ANALYTICAL PARTICLE TRACKING (SOBS1ADV2S)


 ADVECTIVE-TRANSPORT OBSERVATION NUMBER   1
         PARTICLE TRACKING LOCATIONS AND TIMES:
 LAYER ROW  COL   X-POSITION      Y-POSITION      Z-POSITION        TIME
--------------------------------------------------------------------------------
    1   11   25   245.00000       105.00000       0.0000000       0.0000000    
    1   12   25   244.81351       110.00000       0.0000000       55.248650    
    1   13   25   243.80966       120.00000       0.0000000       181.46838    
    1   14   25   244.06783       130.00000       0.0000000       315.22168    
    1   15   25   244.15761       140.00000       0.0000000       438.34073    
    1   16   25   243.87912       150.00000       0.0000000       549.95184    
    1   17   25   243.24670       160.00000       0.0000000       659.94763    
    1   18   25   242.45634       170.00000       0.0000000       764.28491    
    1   19   25   241.89182       180.00000       0.0000000       853.27307    
    1   20   25   241.08768       190.00000       0.0000000       942.04144    
    1   21   25   240.65294       200.00000       0.0000000       1047.7570    
    1   22   25   241.23564       210.00000       0.0000000       1161.9388    
    1   23   25   241.60190       220.00000       0.0000000       1269.9822    
    1   24   25   241.30905       230.00000       0.0000000       1380.9758    
    1   25   25   240.95662       240.00000       0.0000000       1494.0415    
    1   26   25   240.55469       250.00000       0.0000000       1598.7572    
    1   26   24   240.00003       253.35724       0.0000000       1633.9625    
    1   27   24   239.04942       260.00000       0.0000000       1695.7600    
    1   28   24   238.92006       270.00000       0.0000000       1775.1218    
    1   28   25   240.00003       277.49771       0.0000000       1831.7604    
    1   29   25   240.49321       280.00000       0.0000000       1857.3364    
    1   30   25   241.37610       290.00000       0.0000000       1951.1517    
    1   31   25   240.98682       300.00000       0.0000000       2041.0061    
    1   31   24   240.00005       306.66937       0.0000000       2103.7615    
    1   32   24   239.48506       310.00000       0.0000000       2135.7510    
    1   33   24   238.25792       320.00000       0.0000000       2221.4478    
    1   34   24   238.42274       330.00000       0.0000000       2303.5676    
    1   35   24   238.26727       340.00000       0.0000000       2394.2185    
    1   36   24   237.25592       350.00000       0.0000000       2487.8518    
    1   37   24   237.27509       360.00000       0.0000000       2579.2336    
    1   38   24   237.48582       370.00000       0.0000000       2669.2104    
    1   39   24   237.32536       380.00000       0.0000000       2757.3862    
    1   40   24   237.66936       390.00000       0.0000000       2841.4348    
    1   41   24   238.33830       400.00000       0.0000000       2929.0957    
    1   42   24   238.54932       410.00000       0.0000000       3027.2417    
    1   43   24   238.70291       420.00000       0.0000000       3133.1992    
    1   44   24   238.70161       430.00000       0.0000000       3248.1375    
    1   45   24   237.78716       440.00000       0.0000000       3362.3271    
    1   46   24   237.78265       450.00000       0.0000000       3472.4080    
    1   47   24   238.91495       460.00000       0.0000000       3587.3813    
    1   47   25   240.00002       465.15802       0.0000000       3652.4761    
    1   48   25   240.78784       470.00000       0.0000000       3699.1455    
    1   49   25   241.05853       480.00000       0.0000000       3788.3982    
    1   49   24   240.00002       486.37451       0.0000000       3848.5942    
    1   50   24   239.10841       490.00000       0.0000000       3897.9038    
    1   51   24   237.86807       500.00000       0.0000000       4006.5161    
    1   52   24   238.44167       510.00000       0.0000000       4105.5664    
    1   53   24   238.90501       520.00000       0.0000000       4211.1914    
    1   54   24   238.24196       530.00000       0.0000000       4306.2656    
    1   55   24   237.64758       540.00000       0.0000000       4392.1348    
    1   56   24   237.53247       550.00000       0.0000000       4472.1914    
    1   57   24   237.69920       560.00000       0.0000000       4541.9424    
    1   58   24   238.41576       570.00000       0.0000000       4613.1362    
    1   59   24   239.19028       580.00000       0.0000000       4699.4863    
    1   60   24   239.32359       590.00000       0.0000000       4799.7388    
    1   61   24   239.09457       600.00000       0.0000000       4908.6294    
    1   62   24   237.97919       610.00000       0.0000000       5010.4443    
    1   63   24   237.55661       620.00000       0.0000000       5104.3579    
    1   64   24   237.97852       630.00000       0.0000000       5210.3164    
    1   65   24   237.91431       640.00000       0.0000000       5324.5386    
    1   66   24   237.66794       650.00000       0.0000000       5421.7988    
    1   67   24   237.99142       660.00000       0.0000000       5508.4482    
    1   68   24   239.07619       670.00000       0.0000000       5603.5835    
    1   68   25   240.00002       674.20483       0.0000000       5647.9658    
    1   69   25   240.81023       680.00000       0.0000000       5688.9507    
    1   70   25   240.37175       690.00000       0.0000000       5762.3994    
    1   70   24   240.00002       698.89319       0.0000000       5843.2427    
    1   71   24   239.94858       700.00000       0.0000000       5853.3545    
    1   71   25   240.00002       700.77997       0.0000000       5860.5054    
    1   72   25   240.70641       710.00000       0.0000000       5957.4336    
    1   73   25   240.75237       720.00000       0.0000000       6063.0444    
    1   74   25   240.74690       730.00000       0.0000000       6166.9023    
    1   75   25   241.50903       740.00000       0.0000000       6265.9883    
    1   76   25   242.09062       750.00000       0.0000000       6367.1733    
    1   77   25   242.38123       760.00000       0.0000000       6480.7188    
    1   78   25   242.03836       770.00000       0.0000000       6595.4751    
    1   79   25   241.54651       780.00000       0.0000000       6703.6260    
    1   80   25   241.54150       790.00000       0.0000000       6809.2075    

 (SOBS1ADV2S) STOP EXECUTION - PARTICLE STAGNANT IN CELL (ROW,COL)   80   25
 PARTICLE STEPPED OUT OF GRID PREMATURELY AND WILL BE PROJECTED UNTIL TIME OF OBSERVATION (OBS1ADV2P)
................................................................................
OBS #   1-  2     OBS NAME: OBS         
    1   80   25   241.54150       96433.227       0.0000000       1000000.0    
................................................................................


 ALL PARTICLES MOVED EXITING (OBS1ADV2P)



 ADVECTIVE-TRANSPORT OBSERVATIONS 

                          OBSERVED   CALCULATED             WEIGHT  WEIGHTED
  OBS#   ID               LOCATION    LOCATION  RESIDUAL     **0.5  RESIDUAL

     1 OBS          X =    245.       242.       3.46       1.00       3.46    
     2 OBS          Y =    105.      0.964E+05 -0.963E+05   1.00     -0.963E+05

 STATISTICS FOR ADVECTIVE-TRANSPORT RESIDUALS :
 MAXIMUM WEIGHTED RESIDUAL  : 0.346E+01 OBS#      1
 MINIMUM WEIGHTED RESIDUAL  :-0.963E+05 OBS#      2
 AVERAGE WEIGHTED RESIDUAL  :-0.482E+05
 # RESIDUALS >= 0. :      1
 # RESIDUALS < 0.  :      1
 NUMBER OF RUNS  :    1  IN    2 OBSERVATIONS

 SUM OF SQUARED WEIGHTED RESIDUALS
 (ADVECTIVE-TRANSPORT OBSERVATIONS ONLY)  0.92791E+10

 SUM OF SQUARED WEIGHTED RESIDUALS (ALL DEPENDENT VARIABLES)  0.92791E+10

 STATISTICS FOR ALL RESIDUALS :
 AVERAGE WEIGHTED RESIDUAL  :-0.482E+05
 # RESIDUALS >= 0. :      1
 # RESIDUALS < 0.  :      1
 NUMBER OF RUNS  :    1  IN    2 OBSERVATIONS

 COULD NOT CALCULATE THE RUNS STATISTIC

 ORDERED DEPENDENT-VARIABLE WEIGHTED RESIDUALS
 NUMBER OF RESIDUALS INCLUDED:         2
    -0.963E+05   3.46    

 SMALLEST AND LARGEST WEIGHTED RESIDUALS

      SMALLEST WEIGHTED RESIDUALS      |       LARGEST WEIGHTED RESIDUALS
                WEIGHTED   PERCENT OF  |                 WEIGHTED   PERCENT OF
 NAME           RESIDUAL    OBJ FUNC   |  NAME           RESIDUAL    OBJ FUNC
 OBS           -0.963E+05   100.00     |  OBS             3.46         0.00

 STATISTICS FOR ALL RESIDUALS :
 AVERAGE WEIGHTED RESIDUAL  :-0.482E+05
 # RESIDUALS >= 0. :      1
 # RESIDUALS < 0.  :      1
 NUMBER OF RUNS  :    1  IN    2 OBSERVATIONS

 COULD NOT CALCULATE THE RUNS STATISTIC

 CORRELATION BETWEEN ORDERED WEIGHTED RESIDUALS AND NORMAL ORDER STATISTICS
 FOR OBSERVATIONS =     1.00    

 --------------------------------------------------------------------------
 COMMENTS ON THE INTERPRETATION OF THE CORRELATION BETWEEN
 WEIGHTED RESIDUALS AND NORMAL ORDER STATISTICS:

 Generally, IF the reported CORRELATION is LESS than the critical value,
 at the selected significance level (usually 5 or 10%), the hypothesis
 that the weighted residuals are INDEPENDENT AND NORMALLY DISTRIBUTED
 would be REJECTED.  HOWEVER, in this case, conditions are outside of
 the range of published critical values as discussed below.

 The sum of the number of observations and prior information items is     2
 which is less than 35, the minimum value for which critical values are
 published.  Therefore, the critical values for the 5 and 10% significance
 levels are less than 0.943 and 0.952, respectively.

 CORRELATIONS GREATER than these critical values indicate that, probably, the 
 weighted residuals ARE INDEPENDENT AND NORMALLY DISTRIBUTED.

 Correlations LESS than these critical values MAY BE ACCEPTABLE, and
 rejection of the hypothesis is not necessarily warranted.

 The Kolmogorov-Smirnov test can be used to further evaluate the residuals.
 --------------------------------------------------------------------------

