                                  MODFLOW-2000
      U.S. GEOLOGICAL SURVEY MODULAR FINITE-DIFFERENCE GROUND-WATER FLOW MODEL
                             VERSION 1.11 04/10/2003


 This model run combines GLOBAL and LIST output into this single file.

 GLOBAL LISTING FILE: output.dat
                         UNIT    3

 OPENING discret.dat
 FILE TYPE:DIS   UNIT   95   STATUS:OLD    
 FORMAT:FORMATTED              ACCESS:SEQUENTIAL          

 OPENING bas.dat
 FILE TYPE:BAS6   UNIT    1   STATUS:OLD    
 FORMAT:FORMATTED              ACCESS:SEQUENTIAL          

 OPENING adv.dat
 FILE TYPE:ADV2   UNIT   78   STATUS:OLD    
 FORMAT:FORMATTED              ACCESS:SEQUENTIAL          

 OPENING observation.dat
 FILE TYPE:OBS   UNIT   77   STATUS:OLD    
 FORMAT:FORMATTED              ACCESS:SEQUENTIAL          

 OPENING lpf.dat
 FILE TYPE:LPF   UNIT   31   STATUS:OLD    
 FORMAT:FORMATTED              ACCESS:SEQUENTIAL          

 OPENING wel.dat
 FILE TYPE:WEL   UNIT   12   STATUS:OLD    
 FORMAT:FORMATTED              ACCESS:SEQUENTIAL          

 OPENING lmg.dat
 FILE TYPE:LMG   UNIT   23   STATUS:OLD    
 FORMAT:FORMATTED              ACCESS:SEQUENTIAL          

 OPENING oc.dat
 FILE TYPE:OC   UNIT   22   STATUS:OLD    
 FORMAT:FORMATTED              ACCESS:SEQUENTIAL          

 OPENING heads.dat
 FILE TYPE:DATA(BINARY)   UNIT   51   STATUS:UNKNOWN
 FORMAT:UNFORMATTED            ACCESS:TRANSPARENT         

 OPENING path.dat
 FILE TYPE:DATA   UNIT   60   STATUS:UNKNOWN
 FORMAT:FORMATTED              ACCESS:SEQUENTIAL          

 THE FREE FORMAT OPTION HAS BEEN SELECTED

 DISCRETIZATION INPUT DATA READ FROM UNIT   95
 # Discretization file for MODFLOW-2000, generated by PMWIN
    1 LAYERS        80 ROWS        50 COLUMNS
    1 STRESS PERIOD(S) IN SIMULATION
 MODEL TIME UNIT IS DAYS
 MODEL LENGTH UNIT IS UNDEFINED
 THE GROUND-WATER TRANSPORT PROCESS IS INACTIVE

 THE OBSERVATION PROCESS IS ACTIVE
 THE SENSITIVITY PROCESS IS INACTIVE
 THE PARAMETER-ESTIMATION PROCESS IS INACTIVE

 MODE: FORWARD WITH OBSERVATIONS

  Confining bed flag for each layer:
   0

      36130  ELEMENTS OF GX ARRAY USED OUT OF      36130
       4000  ELEMENTS OF GZ ARRAY USED OUT OF       4000
       4000  ELEMENTS OF IG ARRAY USED OUT OF       4000



                               DELR
 READING ON UNIT   95 WITH FORMAT: (20G14.0)           



                               DELC
 READING ON UNIT   95 WITH FORMAT: (20G14.0)           

 TOP ELEVATION OF LAYER 1 =  -100.000    

   MODEL LAYER BOTTOM EL. =  -110.000     FOR LAYER   1


 STRESS PERIOD     LENGTH       TIME STEPS     MULTIPLIER FOR DELT    SS FLAG
 ----------------------------------------------------------------------------
        1         1.000000          1                    1.000         SS

 STEADY-STATE SIMULATION




 LPF1 -- LAYER PROPERTY FLOW PACKAGE, VERSION 1, 1/11/2000
         INPUT READ FROM UNIT   31
 HEAD AT CELLS THAT CONVERT TO DRY= -1.00000E+30
 No named parameters

   LAYER FLAGS:
 LAYER       LAYTYP        LAYAVG         CHANI        LAYVKA        LAYWET
 ---------------------------------------------------------------------------
    1             0             0     1.000E+00             1             0

   INTERPRETATION OF LAYER FLAGS:
                        INTERBLOCK     HORIZONTAL    DATA IN
         LAYER TYPE   TRANSMISSIVITY   ANISOTROPY   ARRAY VKA   WETTABILITY
 LAYER      (LAYTYP)      (LAYAVG)       (CHANI)      (LAYVKA)      (LAYWET)
 ---------------------------------------------------------------------------
    1      CONFINED      HARMONIC     1.000E+00    ANISOTROPY  NON-WETTABLE

       8000 ELEMENTS IN X ARRAY ARE USED BY LPF
          6 ELEMENTS IN IX ARRAY ARE USED BY LPF

 LMG -- ALGEBRAIC MULTI-GRID SOLUTION PACKAGE, VERSION 1.2, 09/19/2002
 STORAGE FACTOR FOR (A) AND (JA)=  3.000
 STORAGE FACTOR FOR (IA), (U), AND (F)=  2.200
 STORAGE FACTOR FOR (IG)=  5.400
     96820 ELEMENTS IN Z ARRAY ARE USED BY LMG
    109620 ELEMENTS IN IX ARRAY ARE USED BY LMG
 SPACE ALLOCATED FOR [A] AND [JA]=    79220
 SPACE ALLOCATED FOR [U] AND [FRHS]=     8800
 SPACE ALLOCATED FOR [IA]=     8800
 SPACE ALLOCATED FOR [IG]=    21600

 OBS1BAS6 -- OBSERVATION PROCESS, VERSION 1.0, 4/27/99
 INPUT READ FROM UNIT  77
 OBSERVATION GRAPH-DATA OUTPUT FILES WILL NOT BE PRINTED

 ADV2 -- OBSERVATION PROCESS (ADVECTIVE TRANSPORT OBSERVATIONS)
 VERSION 2.4, 07/09/2002
 INPUT READ FROM UNIT  78

 NUMBER OF PARTICLES ................................    1
 TOTAL NUMBER OF ADVECTIVE-TRANSPORT OBSERVATIONS ...    1
 OUTPUT UNIT NUMBER FOR ADVECTIVE-TRANSPORT INFO ....   60

 TWO- OR THREE-DIMENSIONAL TRACKING (KTDIM)..........    2
 PARTICLE-TRACKING TIME-STEP FLAG (KTFLG)............    1
 TIME STEP (IF KTFLG>1)..............................  1.0000000    
 FORWARD OR BACKWARD PARTICLE TRACKING (KTREV).......    1
 WEAK SINK FLAG/FRACTION............................. -1.0000000    

    4055 ELEMENTS IN X ARRAY ARE USED FOR OBSERVATIONS
      12 ELEMENTS IN Z ARRAY ARE USED FOR OBSERVATIONS
      13 ELEMENTS IN IX ARRAY ARE USED FOR OBSERVATIONS

 COMMON ERROR VARIANCE FOR ALL OBSERVATIONS SET TO:       1.000    

      12055  ELEMENTS OF X ARRAY USED OUT OF      12055
      96832  ELEMENTS OF Z ARRAY USED OUT OF      96832
     109639  ELEMENTS OF IX ARRAY USED OUT OF     109639
          0  ELEMENTS OF XHS ARRAY USED OUT OF          1

   ADVECTIVE-TRANSPORT OBSERVATION DATA
 -----------------------------------------

 OPENING FILE ON UNIT   99:
 por.ref                                                                                                                                                                                                 



                  POROSITY OF LAYER FOR LAYER   1
 READING ON UNIT   99 WITH FORMAT: (FREE)              

 2D PARTICLE TRACKING USED IN LAYER 1


   PATH # 1 INITIAL LOCATION       
 LAYER   ROW    COL    LOFF    ROFF   COFF 
--------------------------------------------
    1     11     25   0.000   0.000   0.000

  OBSERVED INTERMEDIATE PATH LOCATION(S)   
 OBS #      ID            TIME         LAY ROW COL  LOFF   ROFF   COFF
----------------------------------------------------------------------
  1-  2 OBS             1000000.0       1  11  25  0.000  0.000  0.000


SUMMARY OF ADVECTIVE-TRANSPORT OBSERVATIONS:
 OBS #     ID     DIRECTION  TIME           VALUE           WEIGHT         TYPE
--------------------------------------------------------------------------------
    1  OBS            X    1000000.0       245.00000       1.0000000         1
    2                 Y                    105.00000       1.0000000         1

 *** WARNING:  THE OBSERVATION DATA SET CONTAINS DUPLICATE OBSERVATION NAMES.
 *** FUTURE VERSIONS OF MODFLOW MAY NOT ALLOW DUPLICATION OF OBSERVATION NAMES.



                                    SOLUTION BY THE ALGEBRAIC MULTIGRID METHOD
                                    ------------------------------------------
                     MAXIMUM NUMBER OF CALLS TO AMG ROUTINE =       50
                          MAXIMUM NUMBER OF CYCLES PER CALL =       15
           SCALED L2 NORM OF RESIDUAL CRITERION FOR CLOSURE =    0.10000E-03
                           CG-CORRECTION IS NOT ACTIVE: ICG =        0
                                          DAMPING PARAMETER =    0.10000E+01
                             PRINTING FROM SOLVER INCLUDES:
MESSAGES, RESIDUALS AFTER EACH CYCLE, CP-TIMES, AND STORAGE =        3

 WETTING CAPABILITY IS NOT ACTIVE IN ANY LAYER

 OPENING FILE ON UNIT   99:
 hk.ref                                                                                                                                                                                                  



              HYD. COND. ALONG ROWS FOR LAYER   1
 READING ON UNIT   99 WITH FORMAT: (FREE)              

  HORIZ. TO VERTICAL ANI. =   1.00000     FOR LAYER   1
 
 # Basic package file for MODFLOW-2000                                           
 THE FREE FORMAT OPTION HAS BEEN SELECTED
    1 LAYERS        80 ROWS        50 COLUMNS
    1 STRESS PERIOD(S) IN SIMULATION

 BAS6 -- BASIC PACKAGE, VERSION 6, 1/11/2000 INPUT READ FROM UNIT    1
          5 ELEMENTS IN IR ARRAY ARE USED BY BAS

 WEL6 -- WELL PACKAGE, VERSION 6, 1/11/2000 INPUT READ FROM UNIT   12
 No named parameters
 MAXIMUM OF     50 ACTIVE WELLS AT ONE TIME
        200 ELEMENTS IN RX ARRAY ARE USED BY WEL

        200  ELEMENTS OF RX ARRAY USED OUT OF        200
          5  ELEMENTS OF IR ARRAY USED OUT OF          5
1
 # Basic package file for MODFLOW-2000                                           
                                                                                 

 OPENING FILE ON UNIT   99:
 ibound.inf                                                                                                                                                                                              



                     BOUNDARY ARRAY FOR LAYER   1
 READING ON UNIT   99 WITH FORMAT: (FREE)              

 AQUIFER HEAD WILL BE SET TO 1.00000E+35 AT ALL NO-FLOW NODES (IBOUND=0).

             INITIAL HEAD =   0.00000     FOR LAYER   1

 OUTPUT CONTROL IS SPECIFIED ONLY AT TIME STEPS FOR WHICH OUTPUT IS DESIRED
 HEAD PRINT FORMAT CODE IS   0    DRAWDOWN PRINT FORMAT CODE IS   0
 HEADS WILL BE SAVED ON UNIT   51    DRAWDOWNS WILL BE SAVED ON UNIT    0


     0 Well parameters
1
                            STRESS PERIOD NO.    1, LENGTH =   1.000000    
                            -----------------------------------------------

                              NUMBER OF TIME STEPS =     1

                               MULTIPLIER FOR DELT =     1.000

                            INITIAL TIME STEP SIZE =   1.000000    

 WELL NO.  LAYER   ROW   COL   STRESS RATE   
 --------------------------------------------
      1      1      1      1       1.000    
      2      1      1      2       1.000    
      3      1      1      3       1.000    
      4      1      1      4       1.000    
      5      1      1      5       1.000    
      6      1      1      6       1.000    
      7      1      1      7       1.000    
      8      1      1      8       1.000    
      9      1      1      9       1.000    
     10      1      1     10       1.000    
     11      1      1     11       1.000    
     12      1      1     12       1.000    
     13      1      1     13       1.000    
     14      1      1     14       1.000    
     15      1      1     15       1.000    
     16      1      1     16       1.000    
     17      1      1     17       1.000    
     18      1      1     18       1.000    
     19      1      1     19       1.000    
     20      1      1     20       1.000    
     21      1      1     21       1.000    
     22      1      1     22       1.000    
     23      1      1     23       1.000    
     24      1      1     24       1.000    
     25      1      1     25       1.000    
     26      1      1     26       1.000    
     27      1      1     27       1.000    
     28      1      1     28       1.000    
     29      1      1     29       1.000    
     30      1      1     30       1.000    
     31      1      1     31       1.000    
     32      1      1     32       1.000    
     33      1      1     33       1.000    
     34      1      1     34       1.000    
     35      1      1     35       1.000    
     36      1      1     36       1.000    
     37      1      1     37       1.000    
     38      1      1     38       1.000    
     39      1      1     39       1.000    
     40      1      1     40       1.000    
     41      1      1     41       1.000    
     42      1      1     42       1.000    
     43      1      1     43       1.000    
     44      1      1     44       1.000    
     45      1      1     45       1.000    
     46      1      1     46       1.000    
     47      1      1     47       1.000    
     48      1      1     48       1.000    
     49      1      1     49       1.000    
     50      1      1     50       1.000    

     50 WELLS
 
 SOLVING FOR HEAD 


   AVERAGE ABSOLUTE VALUE OF THE RHS VECTOR=    0.12658E-01
            MAXIMUM VALUE OF THE RHS VECTOR=    0.10000E+01
          CLOSURE CRITERION FOR THE L2 NORM=    0.12658E-05

 CHECK: A PROBABLY SYMMETRIC
 CHECK: A PROBABLY POSITIVE TYPE
 CHECK: MATRIX A WAS SYMMETRICALLY STORED
 INTERPOLATION OPERATOR NO.  1 COMPLETED. C-POINTS ADDED IN PWINT:      0
 COARSE  GRID  OPERATOR NO.  2 COMPLETED
 INTERPOLATION OPERATOR NO.  2 COMPLETED. C-POINTS ADDED IN PWINT:     21
 COARSE  GRID  OPERATOR NO.  3 COMPLETED
 INTERPOLATION OPERATOR NO.  3 COMPLETED. C-POINTS ADDED IN PWINT:     19
 COARSE  GRID  OPERATOR NO.  4 COMPLETED
 INTERPOLATION OPERATOR NO.  4 COMPLETED. C-POINTS ADDED IN PWINT:      9
 COARSE  GRID  OPERATOR NO.  5 COMPLETED
 INTERPOLATION OPERATOR NO.  5 COMPLETED. C-POINTS ADDED IN PWINT:      4
 COARSE  GRID  OPERATOR NO.  6 COMPLETED
 INTERPOLATION OPERATOR NO.  6 COMPLETED. C-POINTS ADDED IN PWINT:      0
 COARSE  GRID  OPERATOR NO.  7 COMPLETED
 INTERPOLATION OPERATOR NO.  7 COMPLETED. C-POINTS ADDED IN PWINT:      0
 COARSE  GRID  OPERATOR NO.  8 COMPLETED

 ************* CYCLING..... *************

 CYCLE  0:   RES=0.707D+01

 CYCLING BETWEEN GRIDS 1 AND  6:

 CYCLE  1:   RESCG=0.177D+01   RES=0.104D+01   CFAC=0.147D+00
 CYCLE  2:   RESCG=0.205D+00   RES=0.134D+00   CFAC=0.129D+00
 CYCLE  3:   RESCG=0.230D-01   RES=0.150D-01   CFAC=0.112D+00
 CYCLE  4:   RESCG=0.239D-02   RES=0.155D-02   CFAC=0.103D+00
 CYCLE  5:   RESCG=0.240D-03   RES=0.154D-03   CFAC=0.994D-01
 CYCLE  6:   RESCG=0.236D-04   RES=0.151D-04   CFAC=0.982D-01
 CYCLE  7:   RESCG=0.233D-05   RES=0.149D-05   CFAC=0.985D-01
 CYCLE  8:   RESCG=0.231D-06   RES=0.148D-06   CFAC=0.995D-01


 **************** CONVERGENCE *****************
 L2-NORM OF RESIDUAL BEFORE CYCLING = 0.707D+01
 L2-NORM OF RESIDUAL AFTER  CYCLING = 0.148D-06
 CONVERGENCE FACTOR                 = 0.210D-07
 CONVERGENCE FACTOR PER CYCLE       = 0.110D+00


 ************** WORK COUNT ***************

   PREP       SEC       SOL      SEC/CYCLE
 -----------------------------------------
 1 RWSRT      0.00   11 INTADD      0.00
 2 PRE-COL    0.00   12 RESCAL      0.00
 3 CHK-COL    0.00   13 RELAX       0.00
 4 INTERPOL   0.00   14 V-*         0.00
 5 RESTRICT   0.00   15 OTHERS      0.00
 6 OPDFN      0.00   16 CONJ-GRAD   0.00
 7 TRUNC      0.00   17 YALE-SMP    0.00
 8 OTHERS     0.00   18 ------      0.00
 -----------------------------------------
   SUM        0.00      SUM         0.00
 -----------------------------------------


 ********* SPACE REQUIREMENTS *********

 VECTOR      NEEDED      THEOR. MINIMUM
 --------------------------------------
   A          56788             56397
   JA         56470             56397
   IA          6719              6712
   U           6718              6711
   F           6718              6711
   IG         20024             17422
 --------------------------------------


 ******************* COMPLEXITIES ********************
 SPACE OCCUPIED BY ALL OPERATORS / SPACE OF OPERATOR  
 ON THE FINEST GRID   =     2.22   (A-COMPLEXITY)     
 TOTAL NUMBER OF GRID POINTS / NUMBER OF POINTS IN    
 THE  FINEST  GRID    =     1.68   (O-COMPLEXITY)     
 TOTAL SPACE USED BY AMG1R5 / SPACE OCCUPIED BY USER- 
 DEFINED  PROBLEM     =     2.84   (S-COMPLEXITY)     
 SPACE USED DURING SOLUTION PHASE / SPACE OCCUPIED BY 
 USER-DEFINED PROBLEM =     2.80
 *****************************************************

 OUTPUT CONTROL FOR STRESS PERIOD    1   TIME STEP   1
    SAVE HEAD FOR ALL LAYERS

 HEAD WILL BE SAVED ON UNIT   51 AT END OF TIME STEP   1, STRESS PERIOD    1
1
  VOLUMETRIC BUDGET FOR ENTIRE MODEL AT END OF TIME STEP  1 IN STRESS PERIOD   1
  ------------------------------------------------------------------------------

     CUMULATIVE VOLUMES      L**3       RATES FOR THIS TIME STEP      L**3/T
     ------------------                 ------------------------

           IN:                                      IN:
           ---                                      ---
             STORAGE =           0.0000               STORAGE =           0.0000
       CONSTANT HEAD =           0.0000         CONSTANT HEAD =           0.0000
               WELLS =          50.0000                 WELLS =          50.0000

            TOTAL IN =          50.0000              TOTAL IN =          50.0000

          OUT:                                     OUT:
          ----                                     ----
             STORAGE =           0.0000               STORAGE =           0.0000
       CONSTANT HEAD =          50.0000         CONSTANT HEAD =          50.0000
               WELLS =           0.0000                 WELLS =           0.0000

           TOTAL OUT =          50.0000             TOTAL OUT =          50.0000

            IN - OUT =           0.0000              IN - OUT =           0.0000

 PERCENT DISCREPANCY =           0.00     PERCENT DISCREPANCY =           0.00






          TIME SUMMARY AT END OF TIME STEP   1 IN STRESS PERIOD    1
                    SECONDS     MINUTES      HOURS       DAYS        YEARS
                    -----------------------------------------------------------
   TIME STEP LENGTH  86400.      1440.0      24.000      1.0000     2.73785E-03
 STRESS PERIOD TIME  86400.      1440.0      24.000      1.0000     2.73785E-03
         TOTAL TIME  86400.      1440.0      24.000      1.0000     2.73785E-03
1


       ENTERING PARTICLE TRACKING ROUTINE (OBS1ADV2P)
 ---------------------------------------------------------
 SUBROUTINE (OBS1ADV2P) IS HARDWIRED WITH THE FOLLOWING OPTIONS:
 LINEAR VELOCITY INTERPOLATION (SOBS1ADV2L)
 SEMI-ANALYTICAL PARTICLE TRACKING (SOBS1ADV2S)


 ADVECTIVE-TRANSPORT OBSERVATION NUMBER   1
         PARTICLE TRACKING LOCATIONS AND TIMES:
 LAYER ROW  COL   X-POSITION      Y-POSITION      Z-POSITION        TIME
--------------------------------------------------------------------------------
    1   11   25   245.00000       105.00000       0.0000000       0.0000000    
    1   12   25   243.97881       110.00000       0.0000000       64.423531    
    1   13   25   242.32678       120.00000       0.0000000       194.55469    
    1   14   25   240.99825       130.00000       0.0000000       326.10373    
    1   14   24   240.00000       139.50188       0.0000000       452.26187    
    1   15   24   239.94516       140.00000       0.0000000       459.16330    
    1   16   24   239.04501       150.00000       0.0000000       597.99066    
    1   17   24   238.22511       160.00000       0.0000000       736.97375    
    1   18   24   237.47736       170.00000       0.0000000       875.62439    
    1   19   24   236.92070       180.00000       0.0000000       1013.5158    
    1   20   24   236.70732       190.00000       0.0000000       1150.5555    
    1   21   24   236.89804       200.00000       0.0000000       1287.2184    
    1   22   24   237.50883       210.00000       0.0000000       1423.9941    
    1   23   24   238.59630       220.00000       0.0000000       1561.2903    
    1   23   25   239.99998       229.13170       0.0000000       1687.7942    
    1   24   25   240.12923       230.00000       0.0000000       1699.3640    
    1   25   25   241.93883       240.00000       0.0000000       1834.3110    
    1   26   25   243.97159       250.00000       0.0000000       1973.4380    
    1   27   25   246.05983       260.00000       0.0000000       2118.0430    
    1   28   25   247.97874       270.00000       0.0000000       2268.3635    
    1   29   25   249.53632       280.00000       0.0000000       2424.2500    
    1   29   26   249.99997       284.07635       0.0000000       2489.3867    
    1   30   26   250.68501       290.00000       0.0000000       2583.6316    
    1   31   26   251.48285       300.00000       0.0000000       2748.3218    
    1   32   26   252.04028       310.00000       0.0000000       2918.8542    
    1   33   26   252.48299       320.00000       0.0000000       3092.9136    
    1   34   26   252.98766       330.00000       0.0000000       3267.8574    
    1   35   26   253.79726       340.00000       0.0000000       3441.6785    
    1   36   26   254.98930       350.00000       0.0000000       3613.1726    
    1   37   26   256.33170       360.00000       0.0000000       3780.7285    
    1   38   26   257.55289       370.00000       0.0000000       3941.9856    
    1   39   26   258.42126       380.00000       0.0000000       4095.0254    
    1   40   26   258.72589       390.00000       0.0000000       4238.9414    
    1   41   26   258.31503       400.00000       0.0000000       4373.3530    
    1   42   26   257.26797       410.00000       0.0000000       4498.4644    
    1   43   26   255.80547       420.00000       0.0000000       4615.4312    
    1   44   26   254.08694       430.00000       0.0000000       4725.8862    
    1   45   26   252.28604       440.00000       0.0000000       4831.1938    
    1   46   26   250.38533       450.00000       0.0000000       4932.0034    
    1   46   25   250.00000       451.86313       0.0000000       4950.3188    
    1   47   25   248.38802       460.00000       0.0000000       5028.5122    
    1   48   25   246.29179       470.00000       0.0000000       5121.4717    
    1   49   25   244.07005       480.00000       0.0000000       5212.0068    
    1   50   25   241.46132       490.00000       0.0000000       5301.8535    
    1   50   24   239.99998       494.79919       0.0000000       5345.5288    
    1   51   24   238.48302       500.00000       0.0000000       5390.1538    
    1   52   24   235.13768       510.00000       0.0000000       5479.5957    
    1   53   24   231.56729       520.00000       0.0000000       5577.2871    
    1   53   23   229.99998       525.24762       0.0000000       5632.6191    
    1   54   23   228.63469       530.00000       0.0000000       5678.4175    
    1   55   23   226.02669       540.00000       0.0000000       5784.3354    
    1   56   23   223.44292       550.00000       0.0000000       5905.6743    
    1   57   23   221.09457       560.00000       0.0000000       6043.4688    
    1   57   22   219.99998       565.95276       0.0000000       6132.6250    
    1   58   22   219.14374       570.00000       0.0000000       6198.4731    
    1   59   22   217.37630       580.00000       0.0000000       6371.5850    
    1   60   22   215.89558       590.00000       0.0000000       6548.9229    
    1   61   22   215.02231       600.00000       0.0000000       6724.8491    
    1   62   22   214.66293       610.00000       0.0000000       6899.4800    
    1   63   22   214.69072       620.00000       0.0000000       7072.8076    
    1   64   22   215.05084       630.00000       0.0000000       7244.8696    
    1   65   22   215.64125       640.00000       0.0000000       7415.0684    
    1   66   22   216.34503       650.00000       0.0000000       7581.9473    
    1   67   22   217.05949       660.00000       0.0000000       7744.7368    
    1   68   22   217.73055       670.00000       0.0000000       7903.7856    
    1   69   22   218.24779       680.00000       0.0000000       8058.7441    
    1   70   22   218.52618       690.00000       0.0000000       8208.8262    
    1   71   22   218.59827       700.00000       0.0000000       8354.7295    
    1   72   22   218.46420       710.00000       0.0000000       8498.1377    
    1   73   22   218.11757       720.00000       0.0000000       8639.4805    
    1   74   22   217.65016       730.00000       0.0000000       8778.1914    
    1   75   22   217.16571       740.00000       0.0000000       8914.1230    
    1   76   22   216.71863       750.00000       0.0000000       9047.8301    
    1   77   22   216.33472       760.00000       0.0000000       9180.5518    
    1   78   22   216.04825       770.00000       0.0000000       9313.7080    
    1   79   22   215.85489       780.00000       0.0000000       9448.0742    
    1   80   22   215.75078       790.00000       0.0000000       9583.5381    

 (SOBS1ADV2S) STOP EXECUTION - PARTICLE STAGNANT IN CELL (ROW,COL)   80   22
 PARTICLE STEPPED OUT OF GRID PREMATURELY AND WILL BE PROJECTED UNTIL TIME OF OBSERVATION (OBS1ADV2P)
................................................................................
OBS #   1-  2     OBS NAME: OBS         
    1   80   22   215.75078       73671.086       0.0000000       1000000.0    
................................................................................


 ALL PARTICLES MOVED EXITING (OBS1ADV2P)



 ADVECTIVE-TRANSPORT OBSERVATIONS 

                          OBSERVED   CALCULATED             WEIGHT  WEIGHTED
  OBS#   ID               LOCATION    LOCATION  RESIDUAL     **0.5  RESIDUAL

     1 OBS          X =    245.       216.       29.2       1.00       29.2    
     2 OBS          Y =    105.      0.737E+05 -0.736E+05   1.00     -0.736E+05

 STATISTICS FOR ADVECTIVE-TRANSPORT RESIDUALS :
 MAXIMUM WEIGHTED RESIDUAL  : 0.292E+02 OBS#      1
 MINIMUM WEIGHTED RESIDUAL  :-0.736E+05 OBS#      2
 AVERAGE WEIGHTED RESIDUAL  :-0.368E+05
 # RESIDUALS >= 0. :      1
 # RESIDUALS < 0.  :      1
 NUMBER OF RUNS  :    1  IN    2 OBSERVATIONS

 SUM OF SQUARED WEIGHTED RESIDUALS
 (ADVECTIVE-TRANSPORT OBSERVATIONS ONLY)  0.54120E+10

 SUM OF SQUARED WEIGHTED RESIDUALS (ALL DEPENDENT VARIABLES)  0.54120E+10

 STATISTICS FOR ALL RESIDUALS :
 AVERAGE WEIGHTED RESIDUAL  :-0.368E+05
 # RESIDUALS >= 0. :      1
 # RESIDUALS < 0.  :      1
 NUMBER OF RUNS  :    1  IN    2 OBSERVATIONS

 COULD NOT CALCULATE THE RUNS STATISTIC

 ORDERED DEPENDENT-VARIABLE WEIGHTED RESIDUALS
 NUMBER OF RESIDUALS INCLUDED:         2
    -0.736E+05   29.2    

 SMALLEST AND LARGEST WEIGHTED RESIDUALS

      SMALLEST WEIGHTED RESIDUALS      |       LARGEST WEIGHTED RESIDUALS
                WEIGHTED   PERCENT OF  |                 WEIGHTED   PERCENT OF
 NAME           RESIDUAL    OBJ FUNC   |  NAME           RESIDUAL    OBJ FUNC
 OBS           -0.736E+05   100.00     |  OBS             29.2         0.00

 STATISTICS FOR ALL RESIDUALS :
 AVERAGE WEIGHTED RESIDUAL  :-0.368E+05
 # RESIDUALS >= 0. :      1
 # RESIDUALS < 0.  :      1
 NUMBER OF RUNS  :    1  IN    2 OBSERVATIONS

 COULD NOT CALCULATE THE RUNS STATISTIC

 CORRELATION BETWEEN ORDERED WEIGHTED RESIDUALS AND NORMAL ORDER STATISTICS
 FOR OBSERVATIONS =     1.00    

 --------------------------------------------------------------------------
 COMMENTS ON THE INTERPRETATION OF THE CORRELATION BETWEEN
 WEIGHTED RESIDUALS AND NORMAL ORDER STATISTICS:

 Generally, IF the reported CORRELATION is LESS than the critical value,
 at the selected significance level (usually 5 or 10%), the hypothesis
 that the weighted residuals are INDEPENDENT AND NORMALLY DISTRIBUTED
 would be REJECTED.  HOWEVER, in this case, conditions are outside of
 the range of published critical values as discussed below.

 The sum of the number of observations and prior information items is     2
 which is less than 35, the minimum value for which critical values are
 published.  Therefore, the critical values for the 5 and 10% significance
 levels are less than 0.943 and 0.952, respectively.

 CORRELATIONS GREATER than these critical values indicate that, probably, the 
 weighted residuals ARE INDEPENDENT AND NORMALLY DISTRIBUTED.

 Correlations LESS than these critical values MAY BE ACCEPTABLE, and
 rejection of the hypothesis is not necessarily warranted.

 The Kolmogorov-Smirnov test can be used to further evaluate the residuals.
 --------------------------------------------------------------------------

